psse/psse-model-test/src/main/resources/psse/ieee_25_bus.rawx
{
    "general":{"version":"35.5"}, 
    "network":{
        "caseid":{
            "fields":["ic", "sbase", "rev", "xfrrat", "nxfrat", "basfrq", "title1", "title2"], 
            "data":[0, 100.0000, 35, 0, 1, 60.00000, "IEEE 25 BUS NETWORK", "N-1-1 ANALYSIS DEMONSTRATION"]
        }, 
        "general":{
            "fields":["thrshz", "pqbrak", "blowup", "maxisollvls", "camaxreptsln", "chkdupcntlbl"], 
            "data":[0.1000000E-03, 0.7000000, 5.000000, 4, 20, 0]
        }, 
        "gauss":{
            "fields":["itmx", "accp", "accq", "accm", "tol"], 
            "data":[100, 1.600000, 1.600000, 1.000000, 0.1000000E-03]
        }, 
        "newton":{
            "fields":["itmxn", "accn", "toln", "vctolq", "vctolv", "dvlim", "ndvfct"], 
            "data":[20, 1.000000, 0.1000000, 0.1000000, 0.1000000E-04, 0.9900000, 0.9900000]
        }, 
        "adjust":{
            "fields":["adjthr", "acctap", "taplim", "swvbnd", "mxtpss", "mxswim"], 
            "data":[0.5000000E-02, 1.000000, 0, 100.0000, 99, 10]
        }, 
        "tysl":{
            "fields":["itmxty", "accty", "tolty"], 
            "data":[20, 1.000000, 0.1000000E-04]
        }, 
        "solver":{
            "fields":["method", "actaps", "areain", "phshft", "dctaps", "swshnt", "flatst", "varlim", "nondiv"], 
            "data":["FDNS", 0, 0, 0, 1, 1, 0, 99, 0]
        }, 
        "rating":{
            "fields":["irate", "name", "desc"], 
            "data":[
                [1, "RATE1", "RATING SET 1"], 
                [2, "RATE2", "RATING SET 2"], 
                [3, "RATE3", "RATING SET 3"], 
                [4, "RATE4", "RATING SET 4"], 
                [5, "RATE5", "RATING SET 5"], 
                [6, "RATE6", "RATING SET 6"], 
                [7, "RATE7", "RATING SET 7"], 
                [8, "RATE8", "RATING SET 8"], 
                [9, "RATE9", "RATING SET 9"], 
                [10, "RATE10", "RATING SET 10"], 
                [11, "RATE11", "RATING SET 11"], 
                [12, "RATE12", "RATING SET 12"]
            ]
        }, 
        "bus":{
            "fields":["ibus", "name", "baskv", "ide", "area", "zone", "owner", "vm", "va", "nvhi", "nvlo", "evhi", "evlo"], 
            "data":[
                [101, "COAL-A", 138.0000, 2, 1, 1, 1, 1.049080, -9.263000, 1.100000, 0.9000000, 1.100000, 0.9000000], 
                [102, "COAL-B", 138.0000, 2, 1, 2, 1, 1.049390, -9.541700, 1.100000, 0.9000000, 1.100000, 0.9000000], 
                [103, "WESTIE-1", 138.0000, 1, 2, 1, 1, 0.9937900, -0.9769000, 1.100000, 0.9000000, 1.100000, 0.9000000], 
                [104, "MARYLOAD", 138.0000, 1, 1, 1, 1, 0.9966600, -11.02320, 1.100000, 0.9000000, 1.100000, 0.9000000], 
                [105, "ANNELOAD", 138.0000, 1, 1, 1, 1, 1.009920, -15.91430, 1.100000, 0.9000000, 1.100000, 0.9000000], 
                [106, "REACTOR", 138.0000, 1, 2, 2, 1, 1.019610, -21.25690, 1.100000, 0.9000000, 1.100000, 0.9000000], 
                [107, "MIDOIL", 138.0000, 2, 5, 2, 1, 1.044390, -17.51310, 1.100000, 0.9000000, 1.100000, 0.9000000], 
                [108, "ERIKLOAD", 138.0000, 1, 5, 2, 1, 0.9881200, -19.70250, 1.100000, 0.9000000, 1.100000, 0.9000000], 
                [109, "MIDTIE-1", 138.0000, 1, 2, 3, 1, 0.9974600, -7.010300, 1.100000, 0.9000000, 1.100000, 0.9000000], 
                [110, "EASTIE-1", 138.0000, 1, 2, 3, 1, 1.010990, -18.90490, 1.100000, 0.9000000, 1.100000, 0.9000000], 
                [211, "MIDTIE-2", 230.0000, 1, 3, 3, 1, 0.9649700, -10.99260, 1.100000, 0.9000000, 1.100000, 0.9000000], 
                [212, "EASTIE-2", 230.0000, 1, 3, 3, 1, 0.9747600, 0.8843000, 1.100000, 0.9000000, 1.100000, 0.9000000], 
                [213, "BIGOIL", 230.0000, 3, 3, 4, 1, 1.015580, 0.000000, 1.100000, 0.9000000, 1.100000, 0.9000000], 
                [214, "CONDENS", 230.0000, 2, 3, 6, 1, 0.9952400, -12.77800, 1.100000, 0.9000000, 1.100000, 0.9000000], 
                [215, "MIDCOALP", 230.0000, 2, 4, 6, 1, 1.017620, 14.90890, 1.100000, 0.9000000, 1.100000, 0.9000000], 
                [216, "MIDCOAL", 230.0000, 2, 4, 6, 1, 1.025750, 15.69350, 1.100000, 0.9000000, 1.100000, 0.9000000], 
                [217, "NOLOAD", 230.0000, 1, 4, 7, 1, 1.040410, 20.17470, 1.100000, 0.9000000, 1.100000, 0.9000000], 
                [218, "NUKE-A", 230.0000, 2, 4, 7, 1, 1.049940, 21.00670, 1.100000, 0.9000000, 1.100000, 0.9000000], 
                [219, "VIKING", 230.0000, 1, 3, 5, 1, 1.025540, 14.65090, 1.100000, 0.9000000, 1.100000, 0.9000000], 
                [220, "CARIOCA", 230.0000, 1, 3, 5, 1, 1.038230, 16.13160, 1.100000, 0.9000000, 1.100000, 0.9000000], 
                [221, "NUKE-B", 230.0000, 2, 4, 7, 1, 1.049940, 21.92010, 1.100000, 0.9000000, 1.100000, 0.9000000], 
                [222, "HYDRO", 230.0000, 2, 4, 7, 1, 1.049660, 32.08620, 1.100000, 0.9000000, 1.100000, 0.9000000], 
                [223, "BIGCOAL", 230.0000, 2, 3, 5, 1, 1.049900, 17.81510, 1.100000, 0.9000000, 1.100000, 0.9000000], 
                [224, "WESTIE-2", 230.0000, 1, 3, 6, 1, 0.9667600, 3.616000, 1.100000, 0.9000000, 1.100000, 0.9000000], 
                [225, "ADDON", 230.0000, 1, 3, 5, 1, 1.003050, 11.83530, 1.100000, 0.9000000, 1.100000, 0.9000000]
            ]
        }, 
        "load":{
            "fields":["ibus", "loadid", "stat", "area", "zone", "pl", "ql", "ip", "iq", "yp", "yq", "owner", "scale", "intrpt", "dgenp", "dgenq", "dgenm", "loadtype"], 
            "data":[
                [101, "1", 1, 1, 1, 100.0000, 27.50000, 0.000000, 0.000000, 0.000000, 0.000000, 1, 1, 0, 0.000000, 0.000000, 0, ""], 
                [102, "1", 1, 1, 2, 121.3000, 25.00000, 0.000000, 0.000000, 0.000000, 0.000000, 1, 1, 0, 0.000000, 0.000000, 0, ""], 
                [103, "1", 1, 2, 1, 225.0000, 46.30000, 0.000000, 0.000000, 0.000000, 0.000000, 1, 1, 0, 0.000000, 0.000000, 0, ""], 
                [104, "1", 1, 1, 1, 92.50000, 18.80000, 0.000000, 0.000000, 0.000000, 0.000000, 1, 1, 0, 0.000000, 0.000000, 0, ""], 
                [105, "1", 1, 1, 1, 88.80000, 17.50000, 0.000000, 0.000000, 0.000000, 0.000000, 1, 1, 0, 0.000000, 0.000000, 0, ""], 
                [106, "1", 1, 2, 2, 170.0000, 35.00000, 0.000000, 0.000000, 0.000000, 0.000000, 1, 1, 0, 0.000000, 0.000000, 0, ""], 
                [107, "1", 1, 5, 2, 156.3000, 31.30000, 0.000000, 0.000000, 0.000000, 0.000000, 1, 1, 0, 0.000000, 0.000000, 0, ""], 
                [108, "1", 1, 5, 2, 213.8000, 43.80000, 0.000000, 0.000000, 0.000000, 0.000000, 1, 1, 0, 0.000000, 0.000000, 0, ""], 
                [109, "1", 1, 2, 3, 218.8000, 45.00000, 0.000000, 0.000000, 0.000000, 0.000000, 1, 1, 0, 0.000000, 0.000000, 0, ""], 
                [110, "1", 1, 2, 3, 243.8000, 50.00000, 0.000000, 0.000000, 0.000000, 0.000000, 1, 1, 0, 0.000000, 0.000000, 0, ""], 
                [213, "1", 1, 3, 4, 331.3000, 67.50000, 0.000000, 0.000000, 0.000000, 0.000000, 1, 1, 0, 0.000000, 0.000000, 0, ""], 
                [214, "1", 1, 3, 6, 242.5000, 49.80000, 0.000000, 0.000000, 0.000000, 0.000000, 1, 1, 0, 0.000000, 0.000000, 0, ""], 
                [215, "1", 1, 4, 6, 396.3000, 80.00000, 0.000000, 0.000000, 0.000000, 0.000000, 1, 1, 0, 0.000000, 0.000000, 0, ""], 
                [216, "1", 1, 4, 6, 125.0000, 25.00000, 0.000000, 0.000000, 0.000000, 0.000000, 1, 1, 0, 0.000000, 0.000000, 0, ""], 
                [218, "1", 1, 4, 7, 416.3000, 85.00000, 0.000000, 0.000000, 0.000000, 0.000000, 1, 1, 0, 0.000000, 0.000000, 0, ""], 
                [219, "1", 1, 3, 5, 226.3000, 46.20000, 0.000000, 0.000000, 0.000000, 0.000000, 1, 1, 0, 0.000000, 0.000000, 0, ""], 
                [220, "1", 1, 3, 5, 160.0000, 32.50000, 0.000000, 0.000000, 0.000000, 0.000000, 1, 1, 0, 0.000000, 0.000000, 0, ""]
            ]
        }, 
        "fixshunt":{
            "fields":["ibus", "shntid", "stat", "gl", "bl"], 
            "data":[
                [106, "1", 1, 0.000000, -40.00000]
            ]
        }, 
        "generator":{
            "fields":["ibus", "machid", "pg", "qg", "qt", "qb", "vs", "ireg", "nreg", "mbase", "zr", "zx", "rt", "xt", "gtap", "stat", "rmpct", "pt", "pb", "baslod", "o1", "f1", "o2", "f2", "o3", "f3", "o4", "f4", "wmod", "wpf", "droopname"], 
            "data":[
                [101, "1", 10.00000, 0.000000, 10.00000, 0.000000, 1.049080, 101, 0, 40.00000, 0.000000, 0.2000000, 0.000000, 0.000000, 1.000000, 0, 100.0000, 20.00000, 0.000000, 0, 1, 1.000000, null, null, null, null, null, null, null, null, ""], 
                [101, "2", 10.00000, 0.000000, 10.00000, 0.000000, 1.049080, 101, 0, 40.00000, 0.000000, 0.2000000, 0.000000, 0.000000, 1.000000, 0, 100.0000, 20.00000, 0.000000, 0, 1, 1.000000, null, null, null, null, null, null, null, null, ""], 
                [101, "3", 76.00000, 18.25700, 30.00000, -25.00000, 1.049080, 101, 0, 100.0000, 0.000000, 0.1810000, 0.000000, 0.000000, 1.000000, 1, 100.0000, 80.00000, 0.000000, 0, 1, 1.000000, null, null, null, null, null, null, null, null, ""], 
                [101, "4", 76.00000, 18.25700, 30.00000, -25.00000, 1.049080, 101, 0, 100.0000, 0.000000, 0.1810000, 0.000000, 0.000000, 1.000000, 1, 100.0000, 80.00000, 0.000000, 0, 1, 1.000000, null, null, null, null, null, null, null, null, ""], 
                [101, "5", 76.00000, 18.25700, 30.00000, -25.00000, 1.049080, 101, 0, 100.0000, 0.000000, 0.1810000, 0.000000, 0.000000, 1.000000, 1, 100.0000, 80.00000, 0.000000, 0, 1, 1.000000, null, null, null, null, null, null, null, null, ""], 
                [102, "1", 10.00000, 0.000000, 10.00000, 0.000000, 1.049390, 102, 0, 40.00000, 0.000000, 0.2000000, 0.000000, 0.000000, 1.000000, 0, 100.0000, 20.00000, 0.000000, 0, 1, 1.000000, null, null, null, null, null, null, null, null, ""], 
                [102, "2", 10.00000, 0.000000, 10.00000, 0.000000, 1.049390, 102, 0, 40.00000, 0.000000, 0.2000000, 0.000000, 0.000000, 1.000000, 0, 100.0000, 20.00000, 0.000000, 0, 1, 1.000000, null, null, null, null, null, null, null, null, ""], 
                [102, "3", 76.00000, 12.95500, 30.00000, -25.00000, 1.049390, 102, 0, 100.0000, 0.000000, 0.1810000, 0.000000, 0.000000, 1.000000, 1, 100.0000, 80.00000, 0.000000, 0, 1, 1.000000, null, null, null, null, null, null, null, null, ""], 
                [102, "4", 76.00000, 12.95500, 30.00000, -25.00000, 1.049390, 102, 0, 100.0000, 0.000000, 0.1810000, 0.000000, 0.000000, 1.000000, 1, 100.0000, 80.00000, 0.000000, 0, 1, 1.000000, null, null, null, null, null, null, null, null, ""], 
                [102, "5", 76.00000, 12.95500, 30.00000, -25.00000, 1.049390, 102, 0, 100.0000, 0.000000, 0.1810000, 0.000000, 0.000000, 1.000000, 1, 100.0000, 80.00000, 0.000000, 0, 1, 1.000000, null, null, null, null, null, null, null, null, ""], 
                [107, "1", 80.00000, 35.21800, 60.00000, 0.000000, 1.044390, 107, 0, 120.0000, 0.000000, 0.1700000, 0.000000, 0.000000, 1.000000, 1, 100.0000, 100.0000, 0.000000, 0, 1, 1.000000, null, null, null, null, null, null, null, null, ""], 
                [107, "2", 80.00000, 35.21800, 60.00000, 0.000000, 1.044390, 107, 0, 120.0000, 0.000000, 0.1700000, 0.000000, 0.000000, 1.000000, 1, 100.0000, 100.0000, 0.000000, 0, 1, 1.000000, null, null, null, null, null, null, null, null, ""], 
                [107, "3", 80.00000, 35.21800, 60.00000, 0.000000, 1.044390, 107, 0, 120.0000, 0.000000, 0.1700000, 0.000000, 0.000000, 1.000000, 1, 100.0000, 100.0000, 0.000000, 0, 1, 1.000000, null, null, null, null, null, null, null, null, ""], 
                [213, "1", 78.81300, 67.69600, 80.00000, 0.000000, 1.015580, 213, 0, 250.0000, 0.000000, 0.1700000, 0.000000, 0.000000, 1.000000, 1, 100.0000, 200.0000, 0.000000, 0, 1, 1.000000, null, null, null, null, null, null, null, null, ""], 
                [213, "2", 89.29800, 76.70200, 80.00000, 0.000000, 1.015580, 213, 0, 250.0000, 0.000000, 0.1700000, 0.000000, 0.000000, 1.000000, 1, 100.0000, 200.0000, 0.000000, 0, 1, 1.000000, null, null, null, null, null, null, null, null, ""], 
                [213, "3", 89.29800, 76.70200, 80.00000, 0.000000, 1.015580, 213, 0, 250.0000, 0.000000, 0.1700000, 0.000000, 0.000000, 1.000000, 1, 100.0000, 200.0000, 0.000000, 0, 1, 1.000000, null, null, null, null, null, null, null, null, ""], 
                [213, "4", 89.29800, 76.70200, 80.00000, 0.000000, 1.015580, 213, 0, 250.0000, 0.000000, 0.1700000, 0.000000, 0.000000, 1.000000, 1, 100.0000, 200.0000, 0.000000, 0, 1, 1.000000, null, null, null, null, null, null, null, null, ""], 
                [214, "1", 0.000000, 50.00000, 50.00000, -200.0000, 1.004420, 214, 0, 200.0000, 0.000000, 0.2270000, 0.000000, 0.000000, 1.000000, 1, 100.0000, 0.000000, 0.000000, 0, 1, 1.000000, null, null, null, null, null, null, null, null, ""], 
                [214, "2", 0.000000, 50.00000, 50.00000, -200.0000, 1.004420, 214, 0, 200.0000, 0.000000, 0.2270000, 0.000000, 0.000000, 1.000000, 1, 100.0000, 0.000000, 0.000000, 0, 1, 1.000000, null, null, null, null, null, null, null, null, ""], 
                [215, "1", 12.00000, 0.000000, 6.000000, 0.000000, 1.024480, 215, 0, 20.00000, 0.000000, 0.2270000, 0.000000, 0.000000, 1.000000, 0, 100.0000, 12.00000, 0.000000, 0, 1, 1.000000, null, null, null, null, null, null, null, null, ""], 
                [215, "2", 12.00000, 0.000000, 6.000000, 0.000000, 1.024480, 215, 0, 20.00000, 0.000000, 0.2270000, 0.000000, 0.000000, 1.000000, 0, 100.0000, 12.00000, 0.000000, 0, 1, 1.000000, null, null, null, null, null, null, null, null, ""], 
                [215, "3", 12.00000, 0.000000, 6.000000, 0.000000, 1.024480, 215, 0, 20.00000, 0.000000, 0.2270000, 0.000000, 0.000000, 1.000000, 0, 100.0000, 12.00000, 0.000000, 0, 1, 1.000000, null, null, null, null, null, null, null, null, ""], 
                [215, "4", 12.00000, 0.000000, 6.000000, 0.000000, 1.024480, 215, 0, 20.00000, 0.000000, 0.2270000, 0.000000, 0.000000, 1.000000, 0, 100.0000, 12.00000, 0.000000, 0, 1, 1.000000, null, null, null, null, null, null, null, null, ""], 
                [215, "5", 12.00000, 0.000000, 6.000000, 0.000000, 1.024480, 215, 0, 20.00000, 0.000000, 0.2270000, 0.000000, 0.000000, 1.000000, 0, 100.0000, 12.00000, 0.000000, 0, 1, 1.000000, null, null, null, null, null, null, null, null, ""], 
                [215, "6", 155.0000, 80.00000, 80.00000, -50.00000, 1.024480, 215, 0, 372.0000, 0.000000, 0.1810000, 0.000000, 0.000000, 1.000000, 1, 100.0000, 300.0000, 0.000000, 0, 1, 1.000000, null, null, null, null, null, null, null, null, ""], 
                [216, "1", 155.0000, 80.00000, 80.00000, -50.00000, 1.026480, 216, 0, 372.0000, 0.000000, 0.1810000, 0.000000, 0.000000, 1.000000, 1, 100.0000, 300.0000, 0.000000, 0, 1, 1.000000, null, null, null, null, null, null, null, null, ""], 
                [218, "1", 400.0000, 151.0180, 200.0000, -50.00000, 1.049940, 218, 0, 700.0000, 0.000000, 0.3000000, 0.000000, 0.000000, 1.000000, 1, 100.0000, 600.0000, 0.000000, 0, 1, 1.000000, null, null, null, null, null, null, null, null, ""], 
                [221, "1", 400.0000, 121.6080, 200.0000, -50.00000, 1.049940, 221, 0, 460.0000, 0.000000, 0.3000000, 0.000000, 0.000000, 1.000000, 1, 100.0000, 400.0000, 0.000000, 0, 1, 1.000000, null, null, null, null, null, null, null, null, ""], 
                [222, "1", 50.00000, -2.753000, 16.00000, -10.00000, 1.049660, 222, 0, 70.00000, 0.000000, 0.2600000, 0.000000, 0.000000, 1.000000, 1, 100.0000, 50.00000, 50.00000, 0, 1, 1.000000, null, null, null, null, null, null, null, null, ""], 
                [222, "2", 50.00000, -2.753000, 16.00000, -10.00000, 1.049660, 222, 0, 70.00000, 0.000000, 0.2600000, 0.000000, 0.000000, 1.000000, 1, 100.0000, 50.00000, 50.00000, 0, 1, 1.000000, null, null, null, null, null, null, null, null, ""], 
                [222, "3", 50.00000, -2.753000, 16.00000, -10.00000, 1.049660, 222, 0, 70.00000, 0.000000, 0.2600000, 0.000000, 0.000000, 1.000000, 1, 100.0000, 50.00000, 50.00000, 0, 1, 1.000000, null, null, null, null, null, null, null, null, ""], 
                [222, "4", 50.00000, -2.753000, 16.00000, -10.00000, 1.049660, 222, 0, 70.00000, 0.000000, 0.2600000, 0.000000, 0.000000, 1.000000, 1, 100.0000, 50.00000, 50.00000, 0, 1, 1.000000, null, null, null, null, null, null, null, null, ""], 
                [222, "5", 50.00000, -2.753000, 16.00000, -10.00000, 1.049660, 222, 0, 70.00000, 0.000000, 0.2600000, 0.000000, 0.000000, 1.000000, 1, 100.0000, 50.00000, 50.00000, 0, 1, 1.000000, null, null, null, null, null, null, null, null, ""], 
                [222, "6", 50.00000, -2.753000, 16.00000, -10.00000, 1.049660, 222, 0, 70.00000, 0.000000, 0.2600000, 0.000000, 0.000000, 1.000000, 1, 100.0000, 50.00000, 50.00000, 0, 1, 1.000000, null, null, null, null, null, null, null, null, ""], 
                [222, "7", 50.00000, -2.753000, 16.00000, -10.00000, 1.049660, 222, 0, 70.00000, 0.000000, 0.2600000, 0.000000, 0.000000, 1.000000, 1, 100.0000, 50.00000, 50.00000, 0, 1, 1.000000, null, null, null, null, null, null, null, null, ""], 
                [222, "8", 50.00000, -2.753000, 16.00000, -10.00000, 1.049660, 222, 0, 70.00000, 0.000000, 0.2600000, 0.000000, 0.000000, 1.000000, 1, 100.0000, 50.00000, 50.00000, 0, 1, 1.000000, null, null, null, null, null, null, null, null, ""], 
                [222, "9", 50.00000, -2.753000, 16.00000, -10.00000, 1.049660, 222, 0, 70.00000, 0.000000, 0.2600000, 0.000000, 0.000000, 1.000000, 1, 100.0000, 50.00000, 50.00000, 0, 1, 1.000000, null, null, null, null, null, null, null, null, ""], 
                [222, "A", 50.00000, -2.753000, 16.00000, -10.00000, 1.049660, 222, 0, 70.00000, 0.000000, 0.2600000, 0.000000, 0.000000, 1.000000, 1, 100.0000, 50.00000, 50.00000, 0, 1, 1.000000, null, null, null, null, null, null, null, null, ""], 
                [223, "1", 155.0000, 29.14300, 80.00000, -50.00000, 1.049900, 223, 0, 200.0000, 0.000000, 0.1810000, 0.000000, 0.000000, 1.000000, 1, 100.0000, 155.0000, 0.000000, 0, 1, 1.000000, null, null, null, null, null, null, null, null, ""], 
                [223, "2", 155.0000, 29.14300, 80.00000, -50.00000, 1.049900, 223, 0, 200.0000, 0.000000, 0.1810000, 0.000000, 0.000000, 1.000000, 1, 100.0000, 155.0000, 0.000000, 0, 1, 1.000000, null, null, null, null, null, null, null, null, ""], 
                [223, "3", 350.0000, 65.80700, 150.0000, -25.00000, 1.049900, 223, 0, 420.0000, 0.000000, 0.1810000, 0.000000, 0.000000, 1.000000, 1, 100.0000, 350.0000, 0.000000, 0, 1, 1.000000, null, null, null, null, null, null, null, null, ""], 
                [223, "4", 350.0000, 65.80700, 150.0000, -25.00000, 1.049900, 223, 0, 420.0000, 0.000000, 0.1810000, 0.000000, 0.000000, 1.000000, 1, 100.0000, 350.0000, 0.000000, 0, 1, 1.000000, null, null, null, null, null, null, null, null, ""]
            ]
        }, 
        "acline":{
            "fields":["ibus", "jbus", "ckt", "rpu", "xpu", "bpu", "name", "rate1", "rate2", "rate3", "rate4", "rate5", "rate6", "rate7", "rate8", "rate9", "rate10", "rate11", "rate12", "gi", "bi", "gj", "bj", "stat", "met", "len", "o1", "f1", "o2", "f2", "o3", "f3", "o4", "f4"], 
            "data":[
                [101, 102, "1", 0.2600000E-02, 0.1390000E-01, 0.4611000, "", 175.0000, 193.0000, 200.0000, 0.000000, 0.000000, 0.000000, 0.000000, 0.000000, 0.000000, 0.000000, 0.000000, 0.000000, 0.000000, 0.000000, 0.000000, 0.000000, 1, 1, 0.000000, 1, 1.000000, null, null, null, null, null, null], 
                [101, 103, "1", 0.5460000E-01, 0.2112000, 0.5720000E-01, "", 175.0000, 208.0000, 220.0000, 0.000000, 0.000000, 0.000000, 0.000000, 0.000000, 0.000000, 0.000000, 0.000000, 0.000000, 0.000000, 0.000000, 0.000000, 0.000000, 1, 1, 0.000000, 1, 1.000000, null, null, null, null, null, null], 
                [101, 105, "1", 0.2180000E-01, 0.8450000E-01, 0.2290000E-01, "", 175.0000, 208.0000, 220.0000, 0.000000, 0.000000, 0.000000, 0.000000, 0.000000, 0.000000, 0.000000, 0.000000, 0.000000, 0.000000, 0.000000, 0.000000, 0.000000, 1, 1, 0.000000, 1, 1.000000, null, null, null, null, null, null], 
                [102, 104, "1", 0.3280000E-01, 0.1267000, 0.3430000E-01, "", 175.0000, 208.0000, 220.0000, 0.000000, 0.000000, 0.000000, 0.000000, 0.000000, 0.000000, 0.000000, 0.000000, 0.000000, 0.000000, 0.000000, 0.000000, 0.000000, 1, 1, 0.000000, 1, 1.000000, null, null, null, null, null, null], 
                [102, 106, "1", 0.4970000E-01, 0.1920000, 0.5200000E-01, "", 175.0000, 208.0000, 220.0000, 0.000000, 0.000000, 0.000000, 0.000000, 0.000000, 0.000000, 0.000000, 0.000000, 0.000000, 0.000000, 0.000000, 0.000000, 0.000000, 1, 1, 0.000000, 1, 1.000000, null, null, null, null, null, null], 
                [103, 109, "1", 0.3080000E-01, 0.1190000, 0.3220000E-01, "", 175.0000, 208.0000, 220.0000, 0.000000, 0.000000, 0.000000, 0.000000, 0.000000, 0.000000, 0.000000, 0.000000, 0.000000, 0.000000, 0.000000, 0.000000, 0.000000, 1, 1, 0.000000, 1, 1.000000, null, null, null, null, null, null], 
                [104, 109, "1", 0.2680000E-01, 0.1037000, 0.2810000E-01, "", 175.0000, 208.0000, 220.0000, 0.000000, 0.000000, 0.000000, 0.000000, 0.000000, 0.000000, 0.000000, 0.000000, 0.000000, 0.000000, 0.000000, 0.000000, 0.000000, 1, 1, 0.000000, 1, 1.000000, null, null, null, null, null, null], 
                [105, 110, "1", 0.2280000E-01, 0.8830000E-01, 0.2390000E-01, "", 175.0000, 208.0000, 220.0000, 0.000000, 0.000000, 0.000000, 0.000000, 0.000000, 0.000000, 0.000000, 0.000000, 0.000000, 0.000000, 0.000000, 0.000000, 0.000000, 1, 1, 0.000000, 1, 1.000000, null, null, null, null, null, null], 
                [106, 110, "1", 0.1390000E-01, 0.6050000E-01, 2.459000, "", 999.0000, 999.0000, 999.0000, 0.000000, 0.000000, 0.000000, 0.000000, 0.000000, 0.000000, 0.000000, 0.000000, 0.000000, 0.000000, 0.000000, 0.000000, 0.000000, 1, 1, 0.000000, 1, 1.000000, null, null, null, null, null, null], 
                [107, 108, "1", 0.1590000E-01, 0.6140000E-01, 0.1660000E-01, "", 175.0000, 208.0000, 220.0000, 0.000000, 0.000000, 0.000000, 0.000000, 0.000000, 0.000000, 0.000000, 0.000000, 0.000000, 0.000000, 0.000000, 0.000000, 0.000000, 1, 1, 0.000000, 1, 1.000000, null, null, null, null, null, null], 
                [108, 109, "1", 0.4270000E-01, 0.1651000, 0.4470000E-01, "", 175.0000, 208.0000, 220.0000, 0.000000, 0.000000, 0.000000, 0.000000, 0.000000, 0.000000, 0.000000, 0.000000, 0.000000, 0.000000, 0.000000, 0.000000, 0.000000, 1, 1, 0.000000, 1, 1.000000, null, null, null, null, null, null], 
                [108, 110, "1", 0.4270000E-01, 0.1651000, 0.4470000E-01, "", 175.0000, 208.0000, 220.0000, 0.000000, 0.000000, 0.000000, 0.000000, 0.000000, 0.000000, 0.000000, 0.000000, 0.000000, 0.000000, 0.000000, 0.000000, 0.000000, 1, 1, 0.000000, 1, 1.000000, null, null, null, null, null, null], 
                [211, 213, "1", 0.6100000E-02, 0.4760000E-01, 0.9990000E-01, "", 500.0000, 600.0000, 625.0000, 0.000000, 0.000000, 0.000000, 0.000000, 0.000000, 0.000000, 0.000000, 0.000000, 0.000000, 0.000000, 0.000000, 0.000000, 0.000000, 1, 1, 0.000000, 1, 1.000000, null, null, null, null, null, null], 
                [211, 214, "1", 0.5400000E-02, 0.4180000E-01, 0.8790000E-01, "", 500.0000, 600.0000, 625.0000, 0.000000, 0.000000, 0.000000, 0.000000, 0.000000, 0.000000, 0.000000, 0.000000, 0.000000, 0.000000, 0.000000, 0.000000, 0.000000, 1, 1, 0.000000, 1, 1.000000, null, null, null, null, null, null], 
                [212, 213, "1", 0.6100000E-02, 0.4760000E-01, 0.9990000E-01, "", 500.0000, 600.0000, 625.0000, 0.000000, 0.000000, 0.000000, 0.000000, 0.000000, 0.000000, 0.000000, 0.000000, 0.000000, 0.000000, 0.000000, 0.000000, 0.000000, 1, 1, 0.000000, 1, 1.000000, null, null, null, null, null, null], 
                [212, 223, "1", 0.1240000E-01, 0.9660000E-01, 0.2030000, "", 500.0000, 600.0000, 625.0000, 0.000000, 0.000000, 0.000000, 0.000000, 0.000000, 0.000000, 0.000000, 0.000000, 0.000000, 0.000000, 0.000000, 0.000000, 0.000000, 1, 1, 0.000000, 1, 1.000000, null, null, null, null, null, null], 
                [213, 223, "1", 0.1110000E-01, 0.8650000E-01, 0.1818000, "", 500.0000, 600.0000, 625.0000, 0.000000, 0.000000, 0.000000, 0.000000, 0.000000, 0.000000, 0.000000, 0.000000, 0.000000, 0.000000, 0.000000, 0.000000, 0.000000, 1, 1, 0.000000, 1, 1.000000, null, null, null, null, null, null], 
                [215, 216, "1", 0.2200000E-02, 0.1730000E-01, 0.3640000E-01, "", 500.0000, 600.0000, 625.0000, 0.000000, 0.000000, 0.000000, 0.000000, 0.000000, 0.000000, 0.000000, 0.000000, 0.000000, 0.000000, 0.000000, 0.000000, 0.000000, 1, 1, 0.000000, 1, 1.000000, null, null, null, null, null, null], 
                [215, 221, "1", 0.6300000E-02, 0.4900000E-01, 0.1030000, "", 500.0000, 600.0000, 625.0000, 0.000000, 0.000000, 0.000000, 0.000000, 0.000000, 0.000000, 0.000000, 0.000000, 0.000000, 0.000000, 0.000000, 0.000000, 0.000000, 1, 1, 0.000000, 1, 1.000000, null, null, null, null, null, null], 
                [215, 221, "2", 0.6300000E-02, 0.4900000E-01, 0.1030000, "", 500.0000, 600.0000, 625.0000, 0.000000, 0.000000, 0.000000, 0.000000, 0.000000, 0.000000, 0.000000, 0.000000, 0.000000, 0.000000, 0.000000, 0.000000, 0.000000, 1, 1, 0.000000, 1, 1.000000, null, null, null, null, null, null], 
                [215, 224, "1", 0.6700000E-02, 0.5190000E-01, 0.1091000, "", 500.0000, 600.0000, 625.0000, 0.000000, 0.000000, 0.000000, 0.000000, 0.000000, 0.000000, 0.000000, 0.000000, 0.000000, 0.000000, 0.000000, 0.000000, 0.000000, 1, 1, 0.000000, 1, 1.000000, null, null, null, null, null, null], 
                [216, 217, "1", 0.3300000E-02, 0.2590000E-01, 0.5450000E-01, "", 500.0000, 600.0000, 625.0000, 0.000000, 0.000000, 0.000000, 0.000000, 0.000000, 0.000000, 0.000000, 0.000000, 0.000000, 0.000000, 0.000000, 0.000000, 0.000000, 1, 1, 0.000000, 1, 1.000000, null, null, null, null, null, null], 
                [216, 219, "1", 0.3000000E-02, 0.2310000E-01, 0.4850000E-01, "", 500.0000, 600.0000, 625.0000, 0.000000, 0.000000, 0.000000, 0.000000, 0.000000, 0.000000, 0.000000, 0.000000, 0.000000, 0.000000, 0.000000, 0.000000, 0.000000, 1, 1, 0.000000, 1, 1.000000, null, null, null, null, null, null], 
                [216, 225, "1", 0.5000000E-02, 0.3890000E-01, 0.8180000E-01, "", 500.0000, 600.0000, 625.0000, 0.000000, 0.000000, 0.000000, 0.000000, 0.000000, 0.000000, 0.000000, 0.000000, 0.000000, 0.000000, 0.000000, 0.000000, 0.000000, 1, 1, 0.000000, 1, 1.000000, null, null, null, null, null, null], 
                [217, 218, "1", 0.1800000E-02, 0.1440000E-01, 0.3030000E-01, "", 500.0000, 600.0000, 625.0000, 0.000000, 0.000000, 0.000000, 0.000000, 0.000000, 0.000000, 0.000000, 0.000000, 0.000000, 0.000000, 0.000000, 0.000000, 0.000000, 1, 1, 0.000000, 1, 1.000000, null, null, null, null, null, null], 
                [217, 222, "1", 0.1350000E-01, 0.1053000, 0.2212000, "", 500.0000, 600.0000, 625.0000, 0.000000, 0.000000, 0.000000, 0.000000, 0.000000, 0.000000, 0.000000, 0.000000, 0.000000, 0.000000, 0.000000, 0.000000, 0.000000, 1, 1, 0.000000, 1, 1.000000, null, null, null, null, null, null], 
                [218, 221, "1", 0.3300000E-02, 0.2590000E-01, 0.5450000E-01, "", 500.0000, 600.0000, 625.0000, 0.000000, 0.000000, 0.000000, 0.000000, 0.000000, 0.000000, 0.000000, 0.000000, 0.000000, 0.000000, 0.000000, 0.000000, 0.000000, 1, 1, 0.000000, 1, 1.000000, null, null, null, null, null, null], 
                [218, 221, "2", 0.3300000E-02, 0.2590000E-01, 0.5450000E-01, "", 500.0000, 600.0000, 625.0000, 0.000000, 0.000000, 0.000000, 0.000000, 0.000000, 0.000000, 0.000000, 0.000000, 0.000000, 0.000000, 0.000000, 0.000000, 0.000000, 1, 1, 0.000000, 1, 1.000000, null, null, null, null, null, null], 
                [219, 220, "1", 0.5100000E-02, 0.3960000E-01, 0.8330000E-01, "", 500.0000, 600.0000, 625.0000, 0.000000, 0.000000, 0.000000, 0.000000, 0.000000, 0.000000, 0.000000, 0.000000, 0.000000, 0.000000, 0.000000, 0.000000, 0.000000, 1, 1, 0.000000, 1, 1.000000, null, null, null, null, null, null], 
                [219, 220, "2", 0.5100000E-02, 0.3960000E-01, 0.8330000E-01, "", 500.0000, 600.0000, 625.0000, 0.000000, 0.000000, 0.000000, 0.000000, 0.000000, 0.000000, 0.000000, 0.000000, 0.000000, 0.000000, 0.000000, 0.000000, 0.000000, 1, 1, 0.000000, 1, 1.000000, null, null, null, null, null, null], 
                [220, 223, "1", 0.2800000E-02, 0.2160000E-01, 0.4550000E-01, "", 500.0000, 600.0000, 625.0000, 0.000000, 0.000000, 0.000000, 0.000000, 0.000000, 0.000000, 0.000000, 0.000000, 0.000000, 0.000000, 0.000000, 0.000000, 0.000000, 1, 1, 0.000000, 1, 1.000000, null, null, null, null, null, null], 
                [220, 223, "2", 0.2800000E-02, 0.2160000E-01, 0.4550000E-01, "", 500.0000, 600.0000, 625.0000, 0.000000, 0.000000, 0.000000, 0.000000, 0.000000, 0.000000, 0.000000, 0.000000, 0.000000, 0.000000, 0.000000, 0.000000, 0.000000, 1, 1, 0.000000, 1, 1.000000, null, null, null, null, null, null], 
                [221, 222, "1", 0.8700000E-02, 0.6780000E-01, 0.1424000, "", 500.0000, 600.0000, 625.0000, 0.000000, 0.000000, 0.000000, 0.000000, 0.000000, 0.000000, 0.000000, 0.000000, 0.000000, 0.000000, 0.000000, 0.000000, 0.000000, 1, 1, 0.000000, 1, 1.000000, null, null, null, null, null, null]
            ]
        }, 
        "sysswd":{
            "fields":["ibus", "jbus", "ckt", "xpu", "rate1", "rate2", "rate3", "rate4", "rate5", "rate6", "rate7", "rate8", "rate9", "rate10", "rate11", "rate12", "stat", "nstat", "met", "stype", "name"], 
            "data":[]
        }, 
        "transformer":{
            "fields":["ibus", "jbus", "kbus", "ckt", "cw", "cz", "cm", "mag1", "mag2", "nmet", "name", "stat", "o1", "f1", "o2", "f2", "o3", "f3", "o4", "f4", "vecgrp", "zcod", "r1_2", "x1_2", "sbase1_2", "r2_3", "x2_3", "sbase2_3", "r3_1", "x3_1", "sbase3_1", "vmstar", "anstar", "windv1", "nomv1", "ang1", "wdg1rate1", "wdg1rate2", "wdg1rate3", "wdg1rate4", "wdg1rate5", "wdg1rate6", "wdg1rate7", "wdg1rate8", "wdg1rate9", "wdg1rate10", "wdg1rate11", "wdg1rate12", "cod1", "cont1", "node1", "rma1", "rmi1", "vma1", "vmi1", "ntp1", "tab1", "cr1", "cx1", "cnxa1", "windv2", "nomv2", "ang2", "wdg2rate1", "wdg2rate2", "wdg2rate3", "wdg2rate4", "wdg2rate5", "wdg2rate6", "wdg2rate7", "wdg2rate8", "wdg2rate9", "wdg2rate10", "wdg2rate11", "wdg2rate12", "cod2", "cont2", "node2", "rma2", "rmi2", "vma2", "vmi2", "ntp2", "tab2", "cr2", "cx2", "cnxa2", "windv3", "nomv3", "ang3", "wdg3rate1", "wdg3rate2", "wdg3rate3", "wdg3rate4", "wdg3rate5", "wdg3rate6", "wdg3rate7", "wdg3rate8", "wdg3rate9", "wdg3rate10", "wdg3rate11", "wdg3rate12", "cod3", "cont3", "node3", "rma3", "rmi3", "vma3", "vmi3", "ntp3", "tab3", "cr3", "cx3", "cnxa3"], 
            "data":[
                [103, 224, 0, "1", 1, 1, 1, 0.000000, 0.000000, 2, "", 1, 1, 1.000000, 0, 1.000000, 0, 1.000000, 0, 1.000000, "", null, 0.2300000E-02, 0.2000000E-01, 100.0000, null, null, null, null, null, null, null, null, 1.037500, 0.000000, 0.000000, 400.0000, 510.0000, 600.0000, 0.000000, 0.000000, 0.000000, 0.000000, 0.000000, 0.000000, 0.000000, 0.000000, 0.000000, 1, 215, 0, 1.050000, 0.9500000, 1.100000, 0.9000000, 17, 0, 0.000000, 0.000000, 0.000000, 1.000000, 0.000000, null, null, null, null, null, null, null, null, null, null, null, null, null, null, null, null, null, null, null, null, null, null, null, null, null, null, null, null, null, null, null, null, null, null, null, null, null, null, null, null, null, null, null, null, null, null, null, null, null, null, null, null], 
                [109, 211, 0, "1", 1, 1, 1, 0.000000, 0.000000, 2, "", 1, 1, 1.000000, 0, 1.000000, 0, 1.000000, 0, 1.000000, "", null, 0.2300000E-02, 0.2000000E-01, 100.0000, null, null, null, null, null, null, null, null, 1.050000, 0.000000, 0.000000, 400.0000, 510.0000, 600.0000, 0.000000, 0.000000, 0.000000, 0.000000, 0.000000, 0.000000, 0.000000, 0.000000, 0.000000, 1, 213, 0, 1.050000, 0.9500000, 1.100000, 0.9000000, 17, 0, 0.000000, 0.000000, 0.000000, 1.000000, 0.000000, null, null, null, null, null, null, null, null, null, null, null, null, null, null, null, null, null, null, null, null, null, null, null, null, null, null, null, null, null, null, null, null, null, null, null, null, null, null, null, null, null, null, null, null, null, null, null, null, null, null, null, null], 
                [109, 212, 0, "1", 1, 1, 1, 0.000000, 0.000000, 2, "", 1, 1, 1.000000, 0, 1.000000, 0, 1.000000, 0, 1.000000, "", null, 0.2300000E-02, 0.2000000E-01, 100.0000, null, null, null, null, null, null, null, null, 1.037500, 0.000000, 0.000000, 450.0000, 510.0000, 600.0000, 0.000000, 0.000000, 0.000000, 0.000000, 0.000000, 0.000000, 0.000000, 0.000000, 0.000000, 1, 213, 0, 1.050000, 0.9500000, 1.100000, 0.9000000, 17, 0, 0.000000, 0.000000, 0.000000, 1.000000, 0.000000, null, null, null, null, null, null, null, null, null, null, null, null, null, null, null, null, null, null, null, null, null, null, null, null, null, null, null, null, null, null, null, null, null, null, null, null, null, null, null, null, null, null, null, null, null, null, null, null, null, null, null, null], 
                [110, 211, 0, "1", 1, 1, 1, 0.000000, 0.000000, 2, "", 1, 1, 1.000000, 0, 1.000000, 0, 1.000000, 0, 1.000000, "", null, 0.2300000E-02, 0.2000000E-01, 100.0000, null, null, null, null, null, null, null, null, 1.050000, 0.000000, 0.000000, 400.0000, 510.0000, 600.0000, 0.000000, 0.000000, 0.000000, 0.000000, 0.000000, 0.000000, 0.000000, 0.000000, 0.000000, 1, 110, 0, 1.050000, 0.9500000, 1.100000, 0.9000000, 17, 0, 0.000000, 0.000000, 0.000000, 1.000000, 0.000000, null, null, null, null, null, null, null, null, null, null, null, null, null, null, null, null, null, null, null, null, null, null, null, null, null, null, null, null, null, null, null, null, null, null, null, null, null, null, null, null, null, null, null, null, null, null, null, null, null, null, null, null], 
                [110, 212, 0, "1", 1, 1, 1, 0.000000, 0.000000, 1, "", 1, 1, 1.000000, 0, 1.000000, 0, 1.000000, 0, 1.000000, "", null, 0.2300000E-02, 0.2000000E-01, 100.0000, null, null, null, null, null, null, null, null, 1.037170, 0.000000, -24.22900, 400.0000, 510.0000, 600.0000, 0.000000, 0.000000, 0.000000, 0.000000, 0.000000, 0.000000, 0.000000, 0.000000, 0.000000, 3, 110, 0, 45.05000, -45.00000, 250.0000, 220.0000, 9999, 0, 0.000000, 0.000000, 0.000000, 1.000000, 0.000000, null, null, null, null, null, null, null, null, null, null, null, null, null, null, null, null, null, null, null, null, null, null, null, null, null, null, null, null, null, null, null, null, null, null, null, null, null, null, null, null, null, null, null, null, null, null, null, null, null, null, null, null], 
                [225, 214, 0, "1", 1, 1, 1, 0.000000, 0.000000, 2, "", 1, 1, 1.000000, 0, 1.000000, 0, 1.000000, 0, 1.000000, "", null, 0.1000000E-02, 0.2000000E-01, 100.0000, null, null, null, null, null, null, null, null, 1.000000, 0.000000, 22.54600, 500.0000, 600.0000, 625.0000, 0.000000, 0.000000, 0.000000, 0.000000, 0.000000, 0.000000, 0.000000, 0.000000, 0.000000, 3, 0, 0, 45.00000, -45.00000, 330.0000, 300.0000, 9999, 0, 0.000000, 0.000000, 0.000000, 1.000000, 0.000000, null, null, null, null, null, null, null, null, null, null, null, null, null, null, null, null, null, null, null, null, null, null, null, null, null, null, null, null, null, null, null, null, null, null, null, null, null, null, null, null, null, null, null, null, null, null, null, null, null, null, null, null]
            ]
        }, 
        "area":{
            "fields":["iarea", "isw", "pdes", "ptol", "arname"], 
            "data":[
                [1, 0, 0.000000, 10.00000, "SOUTH"], 
                [2, 0, 0.000000, 10.00000, "SOUTHGEN"], 
                [3, 0, 0.000000, 10.00000, "MIDAREA"], 
                [4, 0, 0.000000, 10.00000, "NORTH"], 
                [5, 0, 0.000000, 10.00000, "RADIAL"]
            ]
        }, 
        "twotermdc":{
            "fields":["name", "mdc", "rdc", "setvl", "vschd", "vcmod", "rcomp", "delti", "met", "dcvmin", "cccitmx", "cccacc", "ipr", "nbr", "anmxr", "anmnr", "rcr", "xcr", "ebasr", "trr", "tapr", "tmxr", "tmnr", "stpr", "icr", "ndr", "ifr", "itr", "idr", "xcapr", "ipi", "nbi", "anmxi", "anmni", "rci", "xci", "ebasi", "tri", "tapi", "tmxi", "tmni", "stpi", "ici", "ndi", "ifi", "iti", "idi", "xcapi"], 
            "data":[]
        }, 
        "vscdc":{
            "fields":["name", "mdc", "rdc", "o1", "f1", "o2", "f2", "o3", "f3", "o4", "f4", "ibus1", "type1", "mode1", "dcset1", "acset1", "aloss1", "bloss1", "minloss1", "smax1", "imax1", "pwf1", "maxq1", "minq1", "vsreg1", "nreg1", "rmpct1", "ibus2", "type2", "mode2", "dcset2", "acset2", "aloss2", "bloss2", "minloss2", "smax2", "imax2", "pwf2", "maxq2", "minq2", "vsreg2", "nreg2", "rmpct2"], 
            "data":[]
        }, 
        "impcor":{
            "fields":["itable", "tap", "refact", "imfact"], 
            "data":[]
        }, 
        "ntermdc":{
            "fields":["name", "nconv", "ndcbs", "ndcln", "mdc", "vconv", "vcmod", "vconvn"], 
            "data":[]
        }, 
        "ntermdcconv":{
            "fields":["name", "ib", "nbrdg", "angmx", "angmn", "rc", "xc", "ebas", "tr", "tap", "tpmx", "tpmn", "tstp", "setvl", "dcpf", "marg", "cnvcod"], 
            "data":[]
        }, 
        "ntermdcbus":{
            "fields":["name", "idc", "ib", "area", "zone", "dcname", "idc2", "rgrnd", "owner"], 
            "data":[]
        }, 
        "ntermdclink":{
            "fields":["name", "idc", "jdc", "dcckt", "met", "rdc", "ldc"], 
            "data":[]
        }, 
        "msline":{
            "fields":["ibus", "jbus", "mslid", "met", "dum1", "dum2", "dum3", "dum4", "dum5", "dum6", "dum7", "dum8", "dum9"], 
            "data":[]
        }, 
        "zone":{
            "fields":["izone", "zoname"], 
            "data":[
                [1, "SOUTHWST"], 
                [2, "SOUTHEST"], 
                [3, "EASTXFRS"], 
                [4, "MIDEAST"], 
                [5, "MID"], 
                [6, "MIDWEST"], 
                [7, "WAYNORTH"]
            ]
        }, 
        "iatrans":{
            "fields":["arfrom", "arto", "trid", "ptran"], 
            "data":[]
        }, 
        "owner":{
            "fields":["iowner", "owname"], 
            "data":[]
        }, 
        "facts":{
            "fields":["name", "ibus", "jbus", "mode", "pdes", "qdes", "vset", "shmx", "trmx", "vtmn", "vtmx", "vsmx", "imx", "linx", "rmpct", "owner", "set1", "set2", "vsref", "fcreg", "nreg", "mname"], 
            "data":[]
        }, 
        "swshunt":{
            "fields":["ibus", "shntid", "modsw", "adjm", "stat", "vswhi", "vswlo", "swreg", "nreg", "rmpct", "rmidnt", "binit", "s1", "n1", "b1", "s2", "n2", "b2", "s3", "n3", "b3", "s4", "n4", "b4", "s5", "n5", "b5", "s6", "n6", "b6", "s7", "n7", "b7", "s8", "n8", "b8"], 
            "data":[
                [106, "1", 2, 0, 1, 1.038100, 1.038100, 106, 0, 100.0000, "", 0.000000, 1, 5, -20.00000, null, null, null, null, null, null, null, null, null, null, null, null, null, null, null, null, null, null, null, null, null]
            ]
        }, 
        "gne":{
            "fields":["name", "model", "nterm", "bus1", "bus2", "nreal", "nintg", "nchar", "stat", "owner", "nmet", "real1", "real2", "real3", "real4", "real5", "real6", "real7", "real8", "real9", "real10", "intg1", "intg2", "intg3", "intg4", "intg5", "intg6", "intg7", "intg8", "intg9", "intg10", "char1", "char2", "char3", "char4", "char5", "char6", "char7", "char8", "char9", "char10"], 
            "data":[]
        }, 
        "indmach":{
            "fields":["ibus", "imid", "stat", "sc", "dc", "area", "zone", "owner", "tc", "bc", "mbase", "ratekv", "pcode", "pset", "hconst", "aconst", "bconst", "dconst", "econst", "ra", "xa", "xm", "r1", "x1", "r2", "x2", "x3", "e1", "se1", "e2", "se2", "ia1", "ia2", "xamult"], 
            "data":[]
        }, 
        "sub":{
            "fields":["isub", "name", "lati", "long", "srg"], 
            "data":[]
        }, 
        "subnode":{
            "fields":["isub", "inode", "name", "ibus", "stat", "vm", "va"], 
            "data":[]
        }, 
        "subswd":{
            "fields":["isub", "inode", "jnode", "swdid", "name", "type", "stat", "nstat", "xpu", "rate1", "rate2", "rate3"], 
            "data":[]
        }, 
        "subterm":{
            "fields":["isub", "inode", "type", "eqid", "ibus", "jbus", "kbus"], 
            "data":[]
        }
    }, 
    "timeseries":{}, 
    "harmonics":{}
}
